/*--------------------------------*- C++ -*----------------------------------*\
  =========                 |
  \\      /  F ield         | OpenFOAM: The Open Source CFD Toolbox
   \\    /   O peration     | Website:  https://openfoam.org
    \\  /    A nd           | Version:  7
     \\/     M anipulation  |
\*---------------------------------------------------------------------------*/
FoamFile
{
    version     2.0;
    format      ascii;
    class       volScalarField;
    location    "0";
    object      nut;
}
// * * * * * * * * * * * * * * * * * * * * * * * * * * * * * * * * * * * * * //

dimensions      [0 2 -1 0 0 0 0];

internalField   uniform 0;

boundaryField
{
    Inlet
    {
        type            calculated;
        value           uniform 0;
    }
    Out_top_1
    {
        type            calculated;
        value           uniform 0;
    }
    Out_top_2
    {
        type            calculated;
        value           uniform 0;
    }
    Out_top_3
    {
        type            calculated;
        value           uniform 0;
    }
    Out_top_4
    {
        type            calculated;
        value           uniform 0;
    }
    Out_main_lat_1
    {
        type            calculated;
        value           uniform 0;
    }
    Out_main_lat_2
    {
        type            calculated;
        value           uniform 0;
    }
    Out_main_lat_3
    {
        type            calculated;
        value           uniform 0;
    }
    Out_main_lat_4
    {
        type            calculated;
        value           uniform 0;
    }
    Out_dissec_lat_1
    {
        type            calculated;
        value           uniform 0;
    }
    Out_dissec_bot_1
    {
        type            calculated;
        value           uniform 0;
    }
    Out_dissec_bot_2
    {
        type            calculated;
        value           uniform 0;
    }
    Out_main_bott_1
    {
        type            calculated;
        value           uniform 0;
    }
    Out_main_bot_2
    {
        type            calculated;
        value           uniform 0;
    }
    
    Dissecazione
    {
        type            calculated;
        value           uniform 0;
    }
    Main
    {
        type            calculated;
        value           uniform 0;
    }       
     Allungamenti
    {
        type            calculated;
        value           uniform 0;
    }
   
    

}


// ************************************************************************* //
