/*--------------------------------*- C++ -*----------------------------------*\
  =========                 |
  \\      /  F ield         | OpenFOAM: The Open Source CFD Toolbox
   \\    /   O peration     | Website:  https://openfoam.org
    \\  /    A nd           | Version:  dev
     \\/     M anipulation  |
\*---------------------------------------------------------------------------*/
FoamFile
{
    version     2.0;
    format      ascii;
    class       dictionary;
    object      fvSolution;
}
// * * * * * * * * * * * * * * * * * * * * * * * * * * * * * * * * * * * * * //

solvers
{
    p
    {
        solver          GAMG;
        smoother        GaussSeidel;
        tolerance       1e-6;
        relTol          0.01;
    }
    pFinal
    {
	$p;
	tolerance	1e-06;
	relTol		0;
    }

   // UFinal
   // {
//	$p;
//	tolerance	1e-06;
//	relTol		0;
//    }
    "(U|k|epsilon|omega|R|nuTilda)"
    {
        solver          smoothSolver;
        smoother        symGaussSeidel;
        tolerance       1e-6;
        relTol          0.05;
    }
     "(U|k|epsilon|omega|R|nuTilda)Final"
   { 
        $U;
        relTol          0;
   }
     
}

//PISO
PIMPLE
{ 
    nOuterCorrectors    1;
    nCorrectors		2;
    nNonOrthogonalCorrectors 4;
    pRefCell		0;
    pRefValue		0;
}
relaxationFactors
  {
      fields
      {
          p               0.7;
      }
      equations
      {
          U               0.8;
          "(k|omega|epsilon).*" 0.7;
      }
  }
// 
// ************************************************************************* //
