/*--------------------------------*- C++ -*----------------------------------*\
  =========                 |
  \\      /  F ield         | OpenFOAM: The Open Source CFD Toolbox
   \\    /   O peration     | Website:  https://openfoam.org
    \\  /    A nd           | Version:  7
     \\/     M anipulation  |
\*---------------------------------------------------------------------------*/
FoamFile
{
    version     2.0;
    format      ascii;
    class       volScalarField;
    location    "0";
    object      nut;
}
// * * * * * * * * * * * * * * * * * * * * * * * * * * * * * * * * * * * * * //

dimensions      [0 2 -1 0 0 0 0];

internalField   uniform 0;

boundaryField
{
    Inlet
    {
        type            calculated;
        value           uniform 0;
    }
    Out_Renale_dx
    {
        type            calculated;
        value           uniform 0;
    }
    Out_succlavia
    {
        type            calculated;
        value           uniform 0;
    }
    Out_Tronco_anonimo
    {
        type            calculated;
        value           uniform 0;
    }
    Out_carotide_dx
    {
        type            calculated;
        value           uniform 0;
    }
    Out_Carotide_sx
    {
        type            calculated;
        value           uniform 0;
    }
    Out_Tripode
    {
        type            calculated;
        value           uniform 0;
    }
    Out_Mesenterica
    {
        type            calculated;
        value           uniform 0;
    }
    Out_Renale_sx
   {
        type            calculated;
        value           uniform 0;
    }
    Out_Iliaca_dx
    {
        type            calculated;
        value           uniform 0;
    }
    Out_Iliaca_sx
    {
        type            calculated;
        value           uniform 0;
    }
    Out_Iliaca_sx_falso_lume
    {
        type            calculated;
        value           uniform 0;
    }
    
    Falso_lume
    {
        type            calculated;
        value           uniform 0;
    }
    True_lumen
    {
        type            calculated;
        value           uniform 0;
    }       
     Allungamenti
    {
        type zeroGradient;
    }
    

}


// ************************************************************************* //
